src/test/resources/netPositionsData/20190618_0030_2D2_SI0.UCT
##C 2007.05.01

##N
##ZSI
ASLACK11 SLACK        0 2 400.00    0.00    0.00    0.00    0.00  488.99    0.00                                        
ALOAD111 LOAD         1 2 400.00    0.00    0.00    0.00    0.00    0.00    0.00                                        
AKA_MA11 SHADOW       1 2 400.00    0.00    0.00    0.00    0.00   66.99    0.00
##ZXX
XKA_MA11 CORE         1 0 400.00    0.00    0.00    0.00    0.00    0.00    0.00                                        
##L
AKA_MA11 XKA_MA11 1 0   0.00   0.00    0.00   5000
##T
##R
